20
Exported from Olex2
O     3.3300    0.4460   13.4190
O     3.2740   -0.1750   11.3190
O     6.0600    2.1030   15.1150
O     6.2700    0.8600   13.3050
C     4.6020    1.6900   11.9220
C     3.6310    0.5500   12.3210
C     6.6630    2.9810   12.2350
H     7.4720    3.1060   12.6740
C     5.7660    1.9190   12.5620
C     5.1120    3.5570   10.5630
H     4.8870    4.1300    9.8650
C     4.2660    2.4960   10.8720
H     3.4940    2.3400   10.3780
C     6.2570    3.7730   11.2590
H     6.7780    4.5110   11.0400
C     6.3180    1.1080   14.5830
C     6.8660   -0.2020   15.3170
H     7.0140   -0.8940   14.6680
H     6.2210   -0.5010   15.9630
H     7.6910    0.0020   15.7610
